Version 4
SHEET 1 1120 680
WIRE 208 64 128 64
WIRE 240 64 208 64
WIRE 416 64 304 64
WIRE 640 64 416 64
WIRE 640 96 640 64
WIRE 416 112 416 64
WIRE 816 112 688 112
WIRE 864 112 816 112
WIRE 128 128 128 64
WIRE 720 160 688 160
WIRE 720 192 720 160
WIRE 864 192 720 192
WIRE 128 240 128 208
WIRE 416 240 416 176
WIRE 416 240 128 240
WIRE 416 256 416 240
WIRE 640 272 640 176
WIRE 672 272 640 272
WIRE 800 272 752 272
WIRE 928 272 880 272
WIRE 208 352 208 64
WIRE 240 352 208 352
WIRE 416 352 416 320
WIRE 416 352 304 352
WIRE 576 352 416 352
WIRE 928 352 576 352
FLAG 128 240 0
FLAG 720 192 0
FLAG 640 64 Vsupply
FLAG 576 352 Vgnd
FLAG 816 112 Vsw
SYMBOL voltage 128 112 R0
WINDOW 123 0 0 Left 0
WINDOW 39 0 0 Left 0
SYMATTR InstName V1
SYMATTR Value SINE(0 26 50)
SYMBOL diode 240 80 R270
WINDOW 0 32 32 VTop 2
WINDOW 3 0 32 VBottom 2
SYMATTR InstName D1
SYMBOL diode 304 336 R90
WINDOW 0 0 32 VBottom 2
WINDOW 3 32 32 VTop 2
SYMATTR InstName D2
SYMBOL polcap 400 112 R0
WINDOW 3 24 56 Left 2
SYMATTR Value 220µ
SYMATTR InstName C1
SYMATTR Description Capacitor
SYMATTR Type cap
SYMATTR SpiceLine V=50 Irms=1.145 Rser=0.063 Lser=0 mfg="Chemi-Con" pn="LXF50VB221M10X25LL" type="Al electrolytic"
SYMBOL sw 640 192 R180
SYMATTR InstName S1
SYMATTR Value MYSW
SYMBOL voltage 864 96 R0
WINDOW 3 24 96 Invisible 2
WINDOW 123 0 0 Left 0
WINDOW 39 0 0 Left 0
SYMATTR Value PWL(0 1 1 1 1.001 0 1.019 0 1.02 1 1.039 1 1.04 0 1.079 0 1.08 1)
SYMATTR InstName V2
SYMBOL polcap 400 256 R0
SYMATTR InstName C3
SYMATTR Value 220µ
SYMATTR Description Capacitor
SYMATTR Type cap
SYMATTR SpiceLine V=50 Irms=1.145 Rser=0.063 Lser=0 mfg="Chemi-Con" pn="LXF50VB221M10X25LL" type="Al electrolytic"
SYMBOL ind 912 256 R0
SYMATTR InstName L1
SYMATTR Value 2.6
SYMBOL res 768 256 R90
WINDOW 0 0 56 VBottom 2
WINDOW 3 32 56 VTop 2
SYMATTR InstName R1
SYMATTR Value 680
SYMBOL res 896 256 R90
WINDOW 0 0 56 VBottom 2
WINDOW 3 32 56 VTop 2
SYMATTR InstName R2
SYMATTR Value 200
TEXT 272 488 Left 2 ;50V / 0.04A = 1k25 Ohm
TEXT 96 400 Left 2 !.tran 2
TEXT 128 -56 Left 2 !.model MYSW SW(Ron=0.001 Roff=1000Meg Vt=0.5 Vh=0)
TEXT 696 72 Left 2 ;simulating switching
TEXT 264 520 Left 2 ;Power source
