Version 4
SHEET 1 1192 680
WIRE 192 -144 16 -144
WIRE 272 -144 192 -144
WIRE 192 -80 192 -144
WIRE 16 -32 16 -144
WIRE 16 32 16 -32
WIRE 192 32 192 0
WIRE 704 96 576 96
WIRE 16 128 16 112
WIRE -80 144 -128 144
WIRE -32 144 -80 144
WIRE 576 144 576 96
WIRE 704 160 704 96
WIRE -32 192 -64 192
WIRE -64 224 -64 192
WIRE -64 224 -128 224
WIRE 16 224 16 208
WIRE 576 256 576 224
WIRE 272 336 272 -144
WIRE 304 336 272 336
WIRE 416 336 384 336
WIRE 656 336 608 336
WIRE 704 336 704 240
WIRE 704 336 656 336
WIRE 16 400 16 304
WIRE 416 432 272 432
WIRE 656 432 608 432
WIRE 656 464 656 432
WIRE 16 480 16 400
WIRE 80 480 16 480
WIRE 208 480 160 480
WIRE 16 496 16 480
WIRE 16 640 16 576
WIRE 272 640 272 528
FLAG -64 224 0
FLAG -80 144 Vsw
FLAG 192 32 0
FLAG 16 640 0
FLAG 576 256 0
FLAG 272 640 0
FLAG 656 336 ESP_IN
FLAG 16 -32 ADO81
FLAG 16 400 ADO82
FLAG 656 464 0
SYMBOL sw 16 224 M180
SYMATTR InstName S1
SYMATTR Value MYSW
SYMBOL voltage -128 128 M0
WINDOW 3 24 96 Invisible 2
WINDOW 123 0 0 Left 0
WINDOW 39 0 0 Left 0
SYMATTR Value PWL(0 1 1 1 1.001 0 1.019 0 1.02 1 1.039 1 1.04 0 1.079 0 1.08 1)
SYMATTR InstName V2
SYMBOL voltage 192 -96 R0
WINDOW 123 0 0 Left 0
WINDOW 39 0 0 Left 0
SYMATTR InstName V1
SYMATTR Value 5
SYMBOL res 32 592 R180
WINDOW 0 36 76 Left 2
WINDOW 3 36 40 Left 2
SYMATTR InstName R1
SYMATTR Value 470
SYMBOL res 0 16 R0
SYMATTR InstName R2
SYMATTR Value 134
SYMBOL ind 0 208 R0
SYMATTR InstName L1
SYMATTR Value 0.415
SYMBOL voltage 576 128 R0
WINDOW 123 0 0 Left 0
WINDOW 39 0 0 Left 0
SYMATTR InstName V3
SYMATTR Value 3.3
SYMBOL res 688 144 R0
SYMATTR InstName R3
SYMATTR Value 4.7k
SYMBOL npn3 208 432 R0
SYMATTR InstName Q1
SYMATTR Value BC547B
SYMBOL res 176 464 R90
WINDOW 0 0 56 VBottom 2
WINDOW 3 32 56 VTop 2
SYMATTR InstName R4
SYMATTR Value 5.6k
SYMBOL Optos\\PC817A 512 384 R0
SYMATTR InstName U1
SYMBOL res 400 320 R90
WINDOW 0 0 56 VBottom 2
WINDOW 3 32 56 VTop 2
SYMATTR InstName R5
SYMATTR Value 470
TEXT 88 -240 Left 2 !.tran 0 1.1 0.9 0.0001
TEXT -240 -208 Left 2 !.model MYSW SW(Ron=0.001 Roff=1000Meg Vt=0.5 Vh=0)
TEXT 480 72 Left 2 ;Pullup (external or internal)
LINE Normal 144 336 -16 336 2
LINE Normal 144 16 144 336 2
LINE Normal -16 16 144 16 2
